
Circuit: *

Doing analysis at TEMP = 27.000000 and TNOM = 27.000000


No. of Data Rows : 1
********************************************
Operating point
********************************************
op2_TAB
@gib[i] = -3.81380e-18
@r1[i] = 3.640368e-18
@r2[i] = -3.81380e-18
@r3[i] = -1.73431e-19
@r4[i] = -7.93568e-19
@r5[i] = -2.32248e-03
@r6[i] = 2.858886e-19
@r7[i] = 2.858886e-19
v(1) = 0.000000e+00
v(2) = -3.71474e-15
v(3) = -1.13582e-14
v(5) = -3.17874e-15
v(6) = 7.040227e+00
v(7) = -5.90152e-16
v(8) = -8.88178e-16
v(9) = 0.000000e+00
hvd#branch = 2.322481e-03
vim#branch = -2.85889e-19
vs#branch = -3.64037e-18
vx#branch = -2.32248e-03
i(hvd) = 2.322481e-03
op2_END
ngspice-31 done
