
Circuit: *

.ic: no such command available in ngspice
Doing analysis at TEMP = 27.000000 and TNOM = 27.000000


No. of Data Rows : 1
********************************************
Transiant Analisys
********************************************
Doing analysis at TEMP = 27.000000 and TNOM = 27.000000


Initial Transient Solution
--------------------------

Node                                   Voltage
----                                   -------
1                                            0
2                                 -4.28541e-13
3                                 -1.31031e-12
5                                 -3.66706e-13
6                                      7.04023
9                                            0
7                                  1.54318e-13
8                                  2.32248e-13
hvd#branch                          0.00232248
vim#branch                        -7.47565e-17
vs#branch                         -4.19961e-16


No. of Data Rows : 2008

The file "trans4.ps" may be printed on a postscript printer.
trans4_FIG
op_END
Doing analysis at TEMP = 27.000000 and TNOM = 27.000000


No. of Data Rows : 1
********************************************
Frequency analysis
********************************************
Doing analysis at TEMP = 27.000000 and TNOM = 27.000000


No. of Data Rows : 71

The file "mag.ps" may be printed on a postscript printer.
mag_FIG

The file "phs.ps" may be printed on a postscript printer.
phs_FIG
op_END
ngspice-31 done
