
Circuit: *

Doing analysis at TEMP = 27.000000 and TNOM = 27.000000


No. of Data Rows : 1
********************************************
Operating point
********************************************
op1_TAB
@cc[i] = 0.000000e+00
@gib[i] = -1.39223e-03
@r1[i] = 1.328918e-03
@r2[i] = -1.39223e-03
@r3[i] = -6.33111e-05
@r4[i] = 9.769611e-04
@r5[i] = -1.39223e-03
@r6[i] = -3.51957e-04
@r7[i] = -3.51957e-04
v(1) = 5.073745e+00
v(2) = 3.717676e+00
v(3) = 9.274089e-01
v(5) = 3.913344e+00
v(6) = 8.133663e+00
v(7) = 7.265359e-01
v(8) = 1.093436e+00
v(9) = 0.000000e+00
hvd#branch = 3.519573e-04
vim#branch = 3.519573e-04
vs#branch = -1.32892e-03
i(hvd) = 3.519573e-04
op1_END
ngspice-31 done
