
Circuit: *

Doing analysis at TEMP = 27.000000 and TNOM = 27.000000


No. of Data Rows : 1
********************************************
Operating point
********************************************
op_TAB
i(hvc) = -4.58297e-05
i(va) = -2.23392e-04
@gib[i] = -2.34034e-04
@id[current] = 1.040394e-03
@r1[i] = 2.233917e-04
@r2[i] = -2.34034e-04
@r3[i] = -1.06426e-05
@r4[i] = -1.21796e-03
@r5[i] = 1.274428e-03
@r6[i] = 9.945644e-04
@r7[i] = 9.945644e-04
v(1) = 1.950638e-01
v(2) = -3.28919e-02
v(3) = -5.01937e-01
v(4) = -4.87868e+00
v(6) = 3.863224e+00
v(7) = -6.93173e+00
v(8) = -7.96852e+00
v(9) = -4.87868e+00
hvc#branch = -4.58297e-05
va#branch = -2.23392e-04
vim#branch = -9.94564e-04
op_END
ngspice-31 done
