
Circuit: *

********************************************
Transiant Analisys
********************************************
Doing analysis at TEMP = 27.000000 and TNOM = 27.000000


Initial Transient Solution
--------------------------

Node                                   Voltage
----                                   -------
9                                            0
1                                  2.74499e-19
4                                  2.74499e-19
2                                  2.74499e-19
3                                 -4.88485e-24
5                                 -4.88291e-24
6                                  1.58946e-19
7                                  2.01215e-19
8                                  4.15209e-19
10                                  2.1676e-19
11                                -2.84047e-19
12                                -1.80137e-19
13                                -1.07284e-18
14                                -1.53256e-18
15                                -1.97172e-18
16                                -1.69609e-18
17                                 -2.5132e-18
18                                 -2.3337e-18
19                                -1.77625e-18
20                                -1.21881e-18
21                                -8.12538e-19
22                                -4.06269e-19
vim#branch                                   0
e2#branch                                    0
vs#branch                                    0


No. of Data Rows : 20008
yavg                =  1.204410e+01 from=  1.600000e-01 to=  1.800028e-01
ypp                 =  2.357694e-02 from=  1.600000e-01 to=  1.800000e-01
ymax                =  1.205571e+01 at=  1.755628e-01
ymin                =  1.203214e+01 at=  1.644128e-01
opsim_TAB
yavg = 1.204410e+01
1/((3+1.8+0.4)*(12-yavg+0.000001+ypp)) = -9.37078e+00
ymax-ymin = 2.357000e-02
opsim_END
1/((3+1.8+0.4)*(12-yavg+0.000001+ypp)) = -9.37078e+00
op_END
********************************************
Transiant Analisys
********************************************
Doing analysis at TEMP = 27.000000 and TNOM = 27.000000


Initial Transient Solution
--------------------------

Node                                   Voltage
----                                   -------
9                                            0
1                                  2.74499e-19
4                                  2.74499e-19
2                                  2.74499e-19
3                                 -4.88485e-24
5                                 -4.88291e-24
6                                  1.58946e-19
7                                  2.01215e-19
8                                  4.15209e-19
10                                  2.1676e-19
11                                -2.84047e-19
12                                -1.80137e-19
13                                -1.07284e-18
14                                -1.53256e-18
15                                -1.97172e-18
16                                -1.69609e-18
17                                 -2.5132e-18
18                                 -2.3337e-18
19                                -1.77625e-18
20                                -1.21881e-18
21                                -8.12538e-19
22                                -4.06269e-19
vim#branch                                   0
e2#branch                                    0
vs#branch                                    0


No. of Data Rows : 20001

The file "envdect.ps" may be printed on a postscript printer.
envdect_FIG

The file "vreg.ps" may be printed on a postscript printer.
vreg_FIG

The file "vout.ps" may be printed on a postscript printer.
vout_FIG
op_END
Doing analysis at TEMP = 27.000000 and TNOM = 27.000000


No. of Data Rows : 1
	Node                                  Voltage
	----                                  -------
	----	-------
	V(22)                            -4.06269e-19
	V(21)                            -8.12538e-19
	V(20)                            -1.21881e-18
	V(19)                            -1.77625e-18
	V(18)                            -2.33370e-18
	V(17)                            -2.51320e-18
	V(16)                            -1.69609e-18
	V(15)                            -1.97172e-18
	V(14)                            -1.53256e-18
	V(13)                            -1.07284e-18
	V(12)                            -1.80137e-19
	V(11)                            -2.84047e-19
	V(10)                            2.167595e-19
	V(8)                             4.152091e-19
	V(7)                             2.012151e-19
	V(6)                             1.589463e-19
	V(5)                             -4.88291e-24
	V(3)                             -4.88485e-24
	V(2)                             2.744987e-19
	V(4)                             2.744987e-19
	V(1)                             2.744987e-19
	V(9)                             0.000000e+00

	Source	Current
	------	-------

	@d18[id]                         4.062689e-31
	@d17[id]                         4.062689e-31
	@d16[id]                         4.062686e-31
	@d15[id]                         5.574482e-31
	@d14[id]                         5.574482e-31
	@d13[id]                         1.794998e-31
	@d12[id]                         -8.17116e-31
	@d11[id]                         2.756361e-31
	@d10[id]                         -4.39167e-31
	@d9[id]                          -4.59714e-31
	@d8[id]                          -8.92705e-31
	@d6[id]                          1.039101e-31
	@d5[id]                          -5.00807e-31
	@d4[id]                          -1.98450e-31
	@d3[id]                          2.139940e-31
	@d2[id]                          4.226878e-32
	@d1[id]                          1.589512e-31
	@rl[i]                           -3.25527e-27
	@cl[i]                           0.000000e+00
	@rs[i]                           -3.23277e-27
	@dp4[id]                         -2.74499e-31
	@dp3[id]                         -2.74499e-31
	@dp2[id]                         2.745036e-31
	@dp1[id]                         2.745036e-31
	@f1[i]                           0.000000e+00
	vs#branch                        0.000000e+00
	e2#branch                        0.000000e+00
	vim#branch                       0.000000e+00

 Capacitor models (Fixed capacitor)
      model                     C

        cap                     0
         cj                     0
       cjsw                     0
       defw                 1e-05
       defl                     0
     narrow                     0
      short                     0
        del                     0
        tc1                     0
        tc2                     0
         di                     0
      thick                     0
     bv_max                 1e+99

 Diode models (Junction Diode model)
      model               default

      level                     1
         is                 1e-14
        jsw                     0
         rs                     0
        trs                     0
       trs2                     0
          n                     1
         ns                     1
         tt                     0
       ttt1                     0
       ttt2                     0
        cjo                     0
         vj                     1
          m                   0.5
        tm1                     0
        tm2                     0
        cjp                     0
        php                     1
       mjsw                  0.33
        ikf                     0
        ikr                     0
        nbv                     1
       area                     1
         pj                     0
       tlev                     0
      tlevc                     0
         eg                  1.11
        xti                     3
        cta                     0
        ctp                     0
        tpb                     0
       tphp                     0
       jtun                     0
     jtunsw                     0
       ntun                    30
     xtitun                     3
        keg                     1
         kf                     0
         af                     1
         fc                   0.5
        fcs                   0.5
         bv                     0
        ibv                 0.001
        tcv                     0
     fv_max                 1e+99
     bv_max                 1e+99
        isr                 1e-14
         nr                     1

 Resistor models (Simple linear resistor)
      model                     R

        rsh                     0
     narrow                     0
      short                     0
        tc1                     0
        tc2                     0
        tce                     0
       defw                 1e-05
          l                 1e-05
         kf                     0
         af                     0
          r                     0
     bv_max                 1e+99
         lf                     1
         wf                     1
         ef                     1

 Capacitor: Fixed capacitor
     device                    cl
      model                     C
capacitance                 0.004
      dtemp                     0
     bv_max                 1e+99
          i                     0
          p                    -0

 CCCS: Current controlled current source
     device                    f1
          m                     0
          i                     0
          v                     0
          p                     0

 Diode: Junction Diode model
     device                   d18                   d17                   d16
      model               default               default               default
         vd           4.06269e-19           4.06269e-19           4.06269e-19
         id           4.06269e-31           4.06269e-31           4.06269e-31
         gd           1.38662e-12           1.38662e-12           1.38662e-12
         cd                     0                     0                     0

 Diode: Junction Diode model
     device                   d15                   d14                   d13
      model               default               default               default
         vd           5.57448e-19           5.57448e-19             1.795e-19
         id           5.57448e-31           5.57448e-31             1.795e-31
         gd           1.38662e-12           1.38662e-12           1.38662e-12
         cd                     0                     0                     0

 Diode: Junction Diode model
     device                   d12                   d11                   d10
      model               default               default               default
         vd          -8.17116e-19           2.75636e-19          -4.39167e-19
         id          -8.17116e-31           2.75636e-31          -4.39167e-31
         gd           1.38662e-12           1.38662e-12           1.38662e-12
         cd                     0                     0                     0

 Diode: Junction Diode model
     device                    d9                    d8                    d6
      model               default               default               default
         vd          -4.59714e-19          -8.92705e-19            1.0391e-19
         id          -4.59714e-31          -8.92705e-31            1.0391e-31
         gd           1.38662e-12           1.38662e-12           1.38662e-12
         cd                     0                     0                     0

 Diode: Junction Diode model
     device                    d5                    d4                    d3
      model               default               default               default
         vd          -5.00807e-19           -1.9845e-19           2.13994e-19
         id          -5.00807e-31           -1.9845e-31           2.13994e-31
         gd           1.38662e-12           1.38662e-12           1.38662e-12
         cd                     0                     0                     0

 Diode: Junction Diode model
     device                    d2                    d1                   dp4
      model               default               default               default
         vd           4.22688e-20           1.58951e-19          -2.74499e-19
         id           4.22688e-32           1.58951e-31          -2.74499e-31
         gd           1.38662e-12           1.38662e-12           1.38662e-12
         cd                     0                     0                     0

 Diode: Junction Diode model
     device                   dp3                   dp2                   dp1
      model               default               default               default
         vd          -2.74499e-19           2.74504e-19           2.74504e-19
         id          -2.74499e-31           2.74504e-31           2.74504e-31
         gd           1.38662e-12           1.38662e-12           1.38662e-12
         cd                     0                     0                     0

 Resistor: Simple linear resistor
     device                    rl                    rs
      model                     R                     R
 resistance                  1500                   0.6
         ac                  1500                   0.6
      dtemp                     0                     0
     bv_max                 1e+99                 1e+99
      noisy                     1                     1
          i          -3.25527e-27          -3.23277e-27
          p           1.58952e-50           6.27048e-54

 VCVS: Voltage controlled voltage source
     device                    e2
          i                     0
          v                     0
          p                     0

 Vsource: Independent voltage source
     device                   vim                    vs
         dc                     0                     0
      acmag                     0                     0
      pulse         -                     0
                                        230
                                         50
        sin         -                     0
                                        230
                                         50
        exp         -                     0
                                        230
                                         50
        pwl         -                     0
                                        230
                                         50
       sffm         -                     0
                                        230
                                         50
         am         -                     0
                                        230
                                         50
    trnoise         -                     0
                                        230
                                         50
   trrandom         -                     0
                                        230
                                         50
          i                     0                     0
          p                    -0                    -0


Total analysis time (seconds) = 0.79

Total elapsed time (seconds) = 0.955 

Total DRAM available = 7810.465 MB.
DRAM currently available = 4996.801 MB.
Total ngspice program size =   76.402 MB.
Resident set size =   25.844 MB.
Shared ngspice pages =    7.895 MB.
Text (code) pages =    5.070 MB.
Stack = 0 bytes.
Library pages =   56.660 MB.

